# generated using pymatgen
data_C
_symmetry_space_group_name_H-M   'P 1'
_cell_length_a   86.76495361
_cell_length_b   126.50609589
_cell_length_c   843.36260986
_cell_angle_alpha   99.27045441
_cell_angle_beta   92.29446411
_cell_angle_gamma   116.20806122
_symmetry_Int_Tables_number   1
_chemical_formula_structural   C
_chemical_formula_sum   C1
_cell_volume   8131997.41477353
_cell_formula_units_Z   1
loop_
 _symmetry_equiv_pos_site_id
 _symmetry_equiv_pos_as_xyz
  1  'x, y, z'
loop_
 _atom_site_type_symbol
 _atom_site_label
 _atom_site_symmetry_multiplicity
 _atom_site_fract_x
 _atom_site_fract_y
 _atom_site_fract_z
 _atom_site_occupancy
  C  C0  1  0.22190452  0.74425185  0.19509308  1
