# generated using pymatgen
data_C
_symmetry_space_group_name_H-M   'P 1'
_cell_length_a   2.85521865
_cell_length_b   3.62658238
_cell_length_c   4.68063402
_cell_angle_alpha   105.46798706
_cell_angle_beta   104.84552002
_cell_angle_gamma   102.47264862
_symmetry_Int_Tables_number   1
_chemical_formula_structural   C
_chemical_formula_sum   C6
_cell_volume   42.99787122
_cell_formula_units_Z   6
loop_
 _symmetry_equiv_pos_site_id
 _symmetry_equiv_pos_as_xyz
  1  'x, y, z'
loop_
 _atom_site_type_symbol
 _atom_site_label
 _atom_site_symmetry_multiplicity
 _atom_site_fract_x
 _atom_site_fract_y
 _atom_site_fract_z
 _atom_site_occupancy
  C  C0  1  0.67737496  0.16941138  0.42426065  1
  C  C1  1  0.18317649  0.11080138  0.92350036  1
  C  C2  1  0.67843384  0.55041808  0.42524141  1
  C  C3  1  0.37572879  0.89677823  0.11410738  1
  C  C4  1  0.86923110  0.95451772  0.61491770  1
  C  C5  1  0.37519735  0.51600033  0.11419751  1
