# generated using pymatgen
data_C
_symmetry_space_group_name_H-M   'P 1'
_cell_length_a   2.84491992
_cell_length_b   3.65147281
_cell_length_c   4.77958202
_cell_angle_alpha   67.21605682
_cell_angle_beta   77.16310120
_cell_angle_gamma   83.71137238
_symmetry_Int_Tables_number   1
_chemical_formula_structural   C
_chemical_formula_sum   C6
_cell_volume   44.61744637
_cell_formula_units_Z   6
loop_
 _symmetry_equiv_pos_site_id
 _symmetry_equiv_pos_as_xyz
  1  'x, y, z'
loop_
 _atom_site_type_symbol
 _atom_site_label
 _atom_site_symmetry_multiplicity
 _atom_site_fract_x
 _atom_site_fract_y
 _atom_site_fract_z
 _atom_site_occupancy
  C  C0  1  0.61331981  0.71555090  0.09425914  1
  C  C1  1  0.61385906  0.15532677  0.59377974  1
  C  C2  1  0.61465096  0.75123590  0.78481865  1
  C  C3  1  0.61358786  0.31114975  0.28495786  1
  C  C4  1  0.61246663  0.09742785  0.09374896  1
  C  C5  1  0.61378044  0.37087384  0.78419214  1
