# generated using pymatgen
data_C
_symmetry_space_group_name_H-M   'P 1'
_cell_length_a   2.85346413
_cell_length_b   3.65762973
_cell_length_c   4.81153202
_cell_angle_alpha   111.76654816
_cell_angle_beta   96.57633972
_cell_angle_gamma   101.23122406
_symmetry_Int_Tables_number   1
_chemical_formula_structural   C
_chemical_formula_sum   C6
_cell_volume   44.77236179
_cell_formula_units_Z   6
loop_
 _symmetry_equiv_pos_site_id
 _symmetry_equiv_pos_as_xyz
  1  'x, y, z'
loop_
 _atom_site_type_symbol
 _atom_site_label
 _atom_site_symmetry_multiplicity
 _atom_site_fract_x
 _atom_site_fract_y
 _atom_site_fract_z
 _atom_site_occupancy
  C  C0  1  0.71312803  0.78767461  0.82489794  1
  C  C1  1  0.71327579  0.00195573  0.63433295  1
  C  C2  1  0.71386486  0.38484827  0.63487065  1
  C  C3  1  0.71037096  0.94079661  0.13428319  1
  C  C4  1  0.71044368  0.34554321  0.32581228  1
  C  C5  1  0.71054029  0.72883487  0.32510576  1
