# generated using pymatgen
data_C
_symmetry_space_group_name_H-M   'P 1'
_cell_length_a   2.65529037
_cell_length_b   3.65214872
_cell_length_c   4.81527519
_cell_angle_alpha   112.60034180
_cell_angle_beta   92.52955627
_cell_angle_gamma   92.82106018
_symmetry_Int_Tables_number   1
_chemical_formula_structural   C
_chemical_formula_sum   C6
_cell_volume   42.95728933
_cell_formula_units_Z   6
loop_
 _symmetry_equiv_pos_site_id
 _symmetry_equiv_pos_as_xyz
  1  'x, y, z'
loop_
 _atom_site_type_symbol
 _atom_site_label
 _atom_site_symmetry_multiplicity
 _atom_site_fract_x
 _atom_site_fract_y
 _atom_site_fract_z
 _atom_site_occupancy
  C  C0  1  0.07327493  0.25935897  0.11288758  1
  C  C1  1  0.07305904  0.85518360  0.92157155  1
  C  C2  1  0.07328144  0.64341104  0.11267664  1
  C  C3  1  0.07553815  0.29800549  0.42180577  1
  C  C4  1  0.07475451  0.70140129  0.61321861  1
  C  C5  1  0.07554040  0.91503984  0.42158288  1
