# generated using pymatgen
data_C
_symmetry_space_group_name_H-M   'P 1'
_cell_length_a   2.65063739
_cell_length_b   4.21803522
_cell_length_c   4.15597963
_cell_angle_alpha   59.01099777
_cell_angle_beta   88.95468140
_cell_angle_gamma   90.17328644
_symmetry_Int_Tables_number   1
_chemical_formula_structural   C
_chemical_formula_sum   C6
_cell_volume   39.82279546
_cell_formula_units_Z   6
loop_
 _symmetry_equiv_pos_site_id
 _symmetry_equiv_pos_as_xyz
  1  'x, y, z'
loop_
 _atom_site_type_symbol
 _atom_site_label
 _atom_site_symmetry_multiplicity
 _atom_site_fract_x
 _atom_site_fract_y
 _atom_site_fract_z
 _atom_site_occupancy
  C  C0  1  0.59437770  0.51585519  0.46444890  1
  C  C1  1  0.59408873  0.84917009  0.46589467  1
  C  C2  1  0.59373158  0.18240729  0.79925436  1
  C  C3  1  0.59407252  0.84886706  0.79888642  1
  C  C4  1  0.59452575  0.18221873  0.13172260  1
  C  C5  1  0.59443712  0.51475245  0.13301151  1
