# generated using pymatgen
data_C
_symmetry_space_group_name_H-M   'P 1'
_cell_length_a   2.47199106
_cell_length_b   3.69762373
_cell_length_c   4.25350380
_cell_angle_alpha   104.77494049
_cell_angle_beta   89.86126709
_cell_angle_gamma   109.90701294
_symmetry_Int_Tables_number   1
_chemical_formula_structural   C
_chemical_formula_sum   C6
_cell_volume   35.19454725
_cell_formula_units_Z   6
loop_
 _symmetry_equiv_pos_site_id
 _symmetry_equiv_pos_as_xyz
  1  'x, y, z'
loop_
 _atom_site_type_symbol
 _atom_site_label
 _atom_site_symmetry_multiplicity
 _atom_site_fract_x
 _atom_site_fract_y
 _atom_site_fract_z
 _atom_site_occupancy
  C  C0  1  0.59645730  0.47693464  0.81993896  1
  C  C1  1  0.39830372  0.07944155  0.89542085  1
  C  C2  1  0.72016770  0.71983773  0.19363001  1
  C  C3  1  0.91863352  0.11744101  0.11745322  1
  C  C4  1  0.17504662  0.63372076  0.68889606  1
  C  C5  1  0.14157335  0.56145549  0.32431301  1
